Circuit: * C:\Users\tooyi\Documents\GitHub\superhet\subcircuits\lo\colpitts.asc

WARNING: Node N003 is floating.

Direct Newton iteration for .op point succeeded.

Date: Sat May  9 20:54:57 2020
Total elapsed time: 0.904 seconds.

tnom = 27
temp = 27
method = modified trap
totiter = 155956
traniter = 155950
tranpoints = 49700
accept = 35201
rejected = 14499
matrix size = 8
fillins = 2
solver = Normal
Matrix Compiler1: 676 bytes object code size  0.2/0.1/[0.1]
Matrix Compiler2: 710 bytes object code size  0.1/0.1/[0.1]

