Circuit: * C:\Users\tooyi\Documents\GitHub\superhet\subcircuits\lo\colpitts.asc

WARNING: Node N003 is floating.

Direct Newton iteration for .op point succeeded.

Date: Sun May  3 17:47:13 2020
Total elapsed time: 1.404 seconds.

tnom = 27
temp = 27
method = modified trap
totiter = 222671
traniter = 222666
tranpoints = 73900
accept = 50669
rejected = 23231
matrix size = 8
fillins = 2
solver = Normal
Matrix Compiler1: 676 bytes object code size  0.3/0.1/[0.1]
Matrix Compiler2: 710 bytes object code size  0.1/0.1/[0.1]

