Circuit: * C:\Users\tooyi\Documents\GitHub\superhet\subcircuits\mixer\mixer.asc

Direct Newton iteration for .op point succeeded.

Date: Wed May 13 18:58:44 2020
Total elapsed time: 0.105 seconds.

tnom = 27
temp = 27
method = modified trap
totiter = 2118
traniter = 2088
tranpoints = 1045
accept = 1045
rejected = 0
matrix size = 32
fillins = 36
solver = Normal
Matrix Compiler1: 4.86 KB object code size  1.3/0.5/[0.3]
Matrix Compiler2: 3.60 KB object code size  0.3/0.7/[0.3]

