Circuit: * C:\Users\tooyi\Documents\GitHub\superhet\subcircuits\mixer\mixer.asc

Direct Newton iteration for .op point succeeded.

Date: Sat May 16 13:19:12 2020
Total elapsed time: 0.119 seconds.

tnom = 27
temp = 27
method = modified trap
totiter = 2117
traniter = 2088
tranpoints = 1045
accept = 1045
rejected = 0
matrix size = 30
fillins = 14
solver = Normal
Matrix Compiler1: 2.87 KB object code size  0.7/0.3/[0.2]
Matrix Compiler2: 2.89 KB object code size  0.2/0.3/[0.2]

